Circuito teste K
V1 1 0 SIN 0 10 1e3 0 0 0 20000
R1 1 2 1000
L1 2 0 1 
L2 3 0 1
R2 3 0 1000 
K1 L1 L2 1
.TRAN 10e-3 10e-6 BE 2 UIC